9

C                 -3.93245955    1.84919382    0.07877170
C                 -2.55287755    1.84919382    0.07877170
C                 -2.13814355    3.23656082    0.07877170
C                 -3.29220955    3.99265982    0.07868270
O                 -4.41171155    3.15987082    0.07854970
H                 -4.70610555    1.08798882    0.07876070
H                 -1.88835955    0.99049782    0.07887670
H                 -1.11155655    3.59005882    0.07876770
H                 -3.52166555    5.05352182    0.07863270

